Using: /usr/local/apps/synopsys/current_hspice/hspice/linux64/hspice sim1.sp
 lic: total license checkout elapse time:        0.00(s)
