Using: /usr/local/apps/synopsys/current_hspice/hspice/linux64/hspice sim3b.sp
 ****** HSPICE -- K-2015.06-SP1 linux64 (Aug 23 2015) ******                    
  Copyright (c) 1986 - 2019 by Synopsys, Inc. All Rights Reserved.              
  This software and the associated documentation are proprietary
  to Synopsys, Inc. This software may only be used in accordance
  with the terms and conditions of a written license agreement with
  Synopsys, Inc. All other use, reproduction, or distribution of
  this software is strictly prohibited.
  Input File: sim3b.sp                                                          
  Command line options: /usr/local/apps/synopsys/current_hspice/hspice/linux64/hspice sim3b.sp
 lic:  
 lic: FLEXlm: v11.2.1 
 lic: USER:   lopezalj             HOSTNAME: flip1.engr.oregonstate.edu 
 lic: HOSTID: "14feb5d10ee2"       PID:      9038 
 lic: Using FLEXlm license file: 
 lic: 7188@linlic.engr.oregonstate.edu 
 lic: Checkout 1 hspice 
 lic: License/Maintenance for hspice will expire on 12-jul-2021/2019.06 
 lic: 1(in_use)/50(total) FLOATING license(s) on SERVER 7188@linlic.engr.oregonstate.edu 
 lic:   
 Init: read install configuration file: /usr/local/apps/synopsys/current_hspice/hspice/meta.cfg
  **warning** (sim3b.sp:20) No independent source value specified. Reset to zero.
1****** HSPICE -- K-2015.06-SP1 linux64 (Aug 23 2015) ******                    
 ******  
 sim3

 ****** mos   model parameters tnom=  25.000 temp=  25.000 ******
 ***************************************************************************
 ***        model parameters  model name:   0:p_18     model type:pmos   ***
 ***************************************************************************

   *** general parameters ***
    deriv=   0.           

   ***  level 49  model parameters  ***

      hspver=    2006.03               level=         49         
     version=        3.1            paramchk=          0         
      apwarn=          1                lite=          0         
      vgslim=          0             binUnit=          1         
      capMod=          2               xpart=        0.5         
      mobMod=          1              nqsMod=          0         
      stiMod=          0                 elm=          5         
    sfvtflag=          0                 tox=    4.1e-09 meter   
          xj=      1e-07 meter       binflag=          0         
        lmin=          0 meter          lmax=          0 meter   
        wmin=          0 meter          wmax=          0 meter   
        lref=          0 meter          wref=          0 meter   
        lint=2.40594e-08 meter          wint=          0 meter   
       lmult=          1               wmult=          1         
          ll=          0                 lln=          1         
          lw=          0                 lwn=          1         
         lwl=          0                  wl=          0         
         wln=          1                  ww=          0         
         wwn=          1                 wwl=          0         
         dwg=-4.41769e-08 m/V             dwb=6.97017e-09 m/V^1/2 
          xl=          0                  xw=     -1e-08         
          a0=    1.84138                 ags=   0.400689 V^-1    
          b0=7.65708e-07 meter            b1=2.52826e-06 meter   
        keta=  0.0145743 V^-1           voff= -0.0984894 V       
       ngate=          0 cm^-3           vbx=          0 V       
         vbm=         -3 V                xt=   1.55e-07 meter   
        vth0=  -0.404077 V               nch= 4.1589e+17 cm^-3   
        nsub=      6e+16 cm^-3           nlx=1.06879e-07 meter   
      gamma1=          0 V^-1/2       gamma2=          0 V^-1/2  
          k1=   0.583367 V^1/2            k2=  0.0301169         
          k3=          0                 k3b=    16.2021 V^-1    
          w0=      1e-06 meter          dvt0=   0.556918         
        dvt1=   0.246075                dvt2=        0.1 V^-1    
       dvt0w=          0 meter^-1      dvt1w=          0 meter^-1
       dvt2w=          0 V^-1           dsub=    1.02253         
        eta0=   0.152158                etab=  -0.099095 V^-1    
          u0=    116.046 cm^2/V/sec         ua=1.55704e-09 m/V     
          ub=      1e-21 (m/V)^2          uc=     -1e-10 V^-1    
        vsat=     199463 m/sec            a1=   0.373167 v^-1    
          a2=        0.3               delta=       0.01 V       
        rdsw=    287.511 ohm-um         prwg=        0.5 V^-1    
        prwb=  -0.135487 V^-1/2           wr=          1         
        pclm=     2.1661             pdiblc1=3.20891e-05         
     pdiblc2=  0.0164807             pdiblcb=     -0.001 V^-1    
      pscbe1=9.01974e+09 V/m          pscbe2=2.60511e-09 V/m     
       drout=          0                pvag=         15         
     nfactor=     1.8964                cdsc=    0.00024 f/m^2   
       cdscb=          0 f/V/m^2       cdscd=          0 f/V/m^2 
         cit=          0 f/m^2        alpha0=          0 m/V     
       beta0=         30 V               dlc=2.40594e-08 meter   
         dwc=          0 meter           clc=      1e-07 meter   
         cle=        0.6                cgso=   5.75e-10 f/m     
        cgdo=   5.75e-10 f/m            cgbo=      1e-12 f/m     
        cgsl=          0 f/m            cgdl=          0 f/m     
      ckappa=        0.6                  cf=          0 f/m     
        tnom=     300.15 K               kt1=      -0.11 V       
        kt1l=          0                 kt2=      0.022         
         ute=       -1.5                 ua1=   4.31e-09 m/V     
         ub1=  -7.61e-18 (m/V)^2         uc1=   -5.6e-11 m/V^2   
          at=      33000 m/s             prt=          0         
         using Berkeley noise model       noiMod=          1         
        noia=    9.9e+18                noib=       2400         
        noic=    1.4e-12                  em=    4.1e+07         
          ef=          1                  af=          1         
          kf=          0              gdsnoi=-1.23457e-29         
         using Hspice diodes            using ACM 
         acm=         0                 hdif=         0 meter    
        ldif=         0 meter             js=         0 amp/m^2  
         jsw=         0 amp/m            xti=         0          
           n=         1                   cj=0.00116394 f/m^2    
          mj=  0.419416                   pb=  0.865987 V        
        cjsw=1.65613e-10 f/m             mjsw=  0.368302          
         php=  0.865987 V               pbsw (not used)           
      cjgate=1.65613e-10 f/m            cjswg (not used)           
       mjswg (not used)                 pbswg (not used)           
       lketa=-0.00294233               wketa=  0.0266507         
       pketa=-0.00367958               pvth0= 0.00185699         
         pk2= 0.00155429               peta0=0.000100316         
         pu0=    -1.1074                 pua=-4.96912e-11         
         pub=      1e-21               pvsat=        -50         
       prdsw=   -1.14585         
 

 Warning: Pd = 0 is less than Weff = 5.999e-05 in BSIM3 model    0:p_18 element m1 with W = 5.999e-05, L = 5e-07

  
      
 *****************************************************************
 ******  option summary
 ******
 runlvl  = 3         bypass  = 2         
 ******  
 sim3

 ****** dc transfer curves tnom=  25.000 temp=  25.000 ******

a


      volt       i(m1)
 (a       )      -1.5000m      -1.0000m    -500.0000u       0.         500.0000u
                      +             +             +             +             + 
    0.      -950.478u-+------+------+a-----+------+------+------+------+------+-
   10.0000m -950.078u +      +      +a     +      +      +      +      +      + 
   20.0000m -949.677u +      +      +a     +      +      +      +      +      + 
   30.0000m -949.276u +      +      +a     +      +      +      +      +      + 
   40.0000m -948.873u +      +      +a     +      +      +      +      +      + 
   50.0000m -948.469u +      +      +a     +      +      +      +      +      + 
   60.0000m -948.064u +      +      +a     +      +      +      +      +      + 
   70.0000m -947.658u +      +      +a     +      +      +      +      +      + 
   80.0000m -947.251u +      +      +a     +      +      +      +      +      + 
   90.0000m -946.842u +      +      +a     +      +      +      +      +      + 
  100.0000m -946.433u-+------+------+a-----+------+------+------+------+------+-
  110.0000m -946.022u +      +      + a    +      +      +      +      +      + 
  120.0000m -945.610u +      +      + a    +      +      +      +      +      + 
  130.0000m -945.197u +      +      + a    +      +      +      +      +      + 
  140.0000m -944.782u +      +      + a    +      +      +      +      +      + 
  150.0000m -944.366u +      +      + a    +      +      +      +      +      + 
  160.0000m -943.949u +      +      + a    +      +      +      +      +      + 
  170.0000m -943.531u +      +      + a    +      +      +      +      +      + 
  180.0000m -943.111u +      +      + a    +      +      +      +      +      + 
  190.0000m -942.690u +      +      + a    +      +      +      +      +      + 
  200.0000m -942.268u-+------+------+-a----+------+------+------+------+------+-
  210.0000m -941.844u +      +      + a    +      +      +      +      +      + 
  220.0000m -941.419u +      +      + a    +      +      +      +      +      + 
  230.0000m -940.992u +      +      + a    +      +      +      +      +      + 
  240.0000m -940.564u +      +      + a    +      +      +      +      +      + 
  250.0000m -940.134u +      +      + a    +      +      +      +      +      + 
  260.0000m -939.703u +      +      + a    +      +      +      +      +      + 
  270.0000m -939.270u +      +      + a    +      +      +      +      +      + 
  280.0000m -938.836u +      +      + a    +      +      +      +      +      + 
  290.0000m -938.400u +      +      + a    +      +      +      +      +      + 
  300.0000m -937.962u-+------+------+-a----+------+------+------+------+------+-
  310.0000m -937.523u +      +      + a    +      +      +      +      +      + 
  320.0000m -937.082u +      +      + a    +      +      +      +      +      + 
  330.0000m -936.639u +      +      + a    +      +      +      +      +      + 
  340.0000m -936.195u +      +      + a    +      +      +      +      +      + 
  350.0000m -935.749u +      +      + a    +      +      +      +      +      + 
  360.0000m -935.300u +      +      + a    +      +      +      +      +      + 
  370.0000m -934.851u +      +      + a    +      +      +      +      +      + 
  380.0000m -934.399u +      +      + a    +      +      +      +      +      + 
  390.0000m -933.945u +      +      + a    +      +      +      +      +      + 
  400.0000m -933.489u-+------+------+-a----+------+------+------+------+------+-
  410.0000m -933.031u +      +      + a    +      +      +      +      +      + 
  420.0000m -932.571u +      +      + a    +      +      +      +      +      + 
  430.0000m -932.110u +      +      + a    +      +      +      +      +      + 
  440.0000m -931.645u +      +      + a    +      +      +      +      +      + 
  450.0000m -931.179u +      +      + a    +      +      +      +      +      + 
  460.0000m -930.711u +      +      + a    +      +      +      +      +      + 
  470.0000m -930.240u +      +      + a    +      +      +      +      +      + 
  480.0000m -929.767u +      +      + a    +      +      +      +      +      + 
  490.0000m -929.292u +      +      + a    +      +      +      +      +      + 
  500.0000m -928.814u-+------+------+-a----+------+------+------+------+------+-
  510.0000m -928.334u +      +      + a    +      +      +      +      +      + 
  520.0000m -927.851u +      +      + a    +      +      +      +      +      + 
  530.0000m -927.366u +      +      + a    +      +      +      +      +      + 
  540.0000m -926.878u +      +      + a    +      +      +      +      +      + 
  550.0000m -926.388u +      +      + a    +      +      +      +      +      + 
  560.0000m -925.894u +      +      + a    +      +      +      +      +      + 
  570.0000m -925.398u +      +      + a    +      +      +      +      +      + 
  580.0000m -924.900u +      +      + a    +      +      +      +      +      + 
  590.0000m -924.398u +      +      + a    +      +      +      +      +      + 
  600.0000m -923.893u-+------+------+-a----+------+------+------+------+------+-
  610.0000m -923.386u +      +      + a    +      +      +      +      +      + 
  620.0000m -922.875u +      +      + a    +      +      +      +      +      + 
  630.0000m -922.361u +      +      + a    +      +      +      +      +      + 
  640.0000m -921.844u +      +      + a    +      +      +      +      +      + 
  650.0000m -921.323u +      +      + a    +      +      +      +      +      + 
  660.0000m -920.799u +      +      + a    +      +      +      +      +      + 
  670.0000m -920.272u +      +      + a    +      +      +      +      +      + 
  680.0000m -919.741u +      +      + a    +      +      +      +      +      + 
  690.0000m -919.206u +      +      + a    +      +      +      +      +      + 
  700.0000m -918.668u-+------+------+-a----+------+------+------+------+------+-
  710.0000m -918.126u +      +      + a    +      +      +      +      +      + 
  720.0000m -917.580u +      +      + a    +      +      +      +      +      + 
  730.0000m -917.030u +      +      + a    +      +      +      +      +      + 
  740.0000m -916.476u +      +      + a    +      +      +      +      +      + 
  750.0000m -915.918u +      +      + a    +      +      +      +      +      + 
  760.0000m -915.355u +      +      + a    +      +      +      +      +      + 
  770.0000m -914.788u +      +      + a    +      +      +      +      +      + 
  780.0000m -914.217u +      +      + a    +      +      +      +      +      + 
  790.0000m -913.640u +      +      + a    +      +      +      +      +      + 
  800.0000m -913.059u-+------+------+-a----+------+------+------+------+------+-
  810.0000m -912.473u +      +      + a    +      +      +      +      +      + 
  820.0000m -911.882u +      +      + a    +      +      +      +      +      + 
  830.0000m -911.286u +      +      + a    +      +      +      +      +      + 
  840.0000m -910.685u +      +      +  a   +      +      +      +      +      + 
  850.0000m -910.078u +      +      +  a   +      +      +      +      +      + 
  860.0000m -909.465u +      +      +  a   +      +      +      +      +      + 
  870.0000m -908.846u +      +      +  a   +      +      +      +      +      + 
  880.0000m -908.222u +      +      +  a   +      +      +      +      +      + 
  890.0000m -907.591u +      +      +  a   +      +      +      +      +      + 
  900.0000m -906.954u-+------+------+--a---+------+------+------+------+------+-
  910.0000m -906.310u +      +      +  a   +      +      +      +      +      + 
  920.0000m -905.660u +      +      +  a   +      +      +      +      +      + 
  930.0000m -905.002u +      +      +  a   +      +      +      +      +      + 
  940.0000m -904.338u +      +      +  a   +      +      +      +      +      + 
  950.0000m -903.665u +      +      +  a   +      +      +      +      +      + 
  960.0000m -902.985u +      +      +  a   +      +      +      +      +      + 
  970.0000m -902.298u +      +      +  a   +      +      +      +      +      + 
  980.0000m -901.601u +      +      +  a   +      +      +      +      +      + 
  990.0000m -900.896u +      +      +  a   +      +      +      +      +      + 
    1.0000  -900.183u-+------+------+--a---+------+------+------+------+------+-
    1.0100  -899.460u +      +      +  a   +      +      +      +      +      + 
    1.0200  -898.727u +      +      +  a   +      +      +      +      +      + 
    1.0300  -897.985u +      +      +  a   +      +      +      +      +      + 
    1.0400  -897.231u +      +      +  a   +      +      +      +      +      + 
    1.0500  -896.468u +      +      +  a   +      +      +      +      +      + 
    1.0600  -895.692u +      +      +  a   +      +      +      +      +      + 
    1.0700  -894.905u +      +      +  a   +      +      +      +      +      + 
    1.0800  -894.106u +      +      +  a   +      +      +      +      +      + 
    1.0900  -893.293u +      +      +  a   +      +      +      +      +      + 
    1.1000  -892.467u-+------+------+--a---+------+------+------+------+------+-
    1.1100  -891.626u +      +      +  a   +      +      +      +      +      + 
    1.1200  -890.770u +      +      +  a   +      +      +      +      +      + 
    1.1300  -889.898u +      +      +  a   +      +      +      +      +      + 
    1.1400  -889.008u +      +      +  a   +      +      +      +      +      + 
    1.1500  -888.101u +      +      +  a   +      +      +      +      +      + 
    1.1600  -887.174u +      +      +  a   +      +      +      +      +      + 
    1.1700  -886.227u +      +      +  a   +      +      +      +      +      + 
    1.1800  -885.257u +      +      +  a   +      +      +      +      +      + 
    1.1900  -884.264u +      +      +  a   +      +      +      +      +      + 
    1.2000  -883.244u-+------+------+--a---+------+------+------+------+------+-
    1.2100  -882.197u +      +      +  a   +      +      +      +      +      + 
    1.2200  -881.118u +      +      +  a   +      +      +      +      +      + 
    1.2300  -880.005u +      +      +  a   +      +      +      +      +      + 
    1.2400  -878.855u +      +      +  a   +      +      +      +      +      + 
    1.2500  -877.664u +      +      +  a   +      +      +      +      +      + 
    1.2600  -876.425u +      +      +  a   +      +      +      +      +      + 
    1.2700  -875.134u +      +      +  a   +      +      +      +      +      + 
    1.2800  -873.784u +      +      +   a  +      +      +      +      +      + 
    1.2900  -872.365u +      +      +   a  +      +      +      +      +      + 
    1.3000  -870.868u-+------+------+---a--+------+------+------+------+------+-
    1.3100  -869.280u +      +      +   a  +      +      +      +      +      + 
    1.3200  -867.587u +      +      +   a  +      +      +      +      +      + 
    1.3300  -865.771u +      +      +   a  +      +      +      +      +      + 
    1.3400  -863.809u +      +      +   a  +      +      +      +      +      + 
    1.3500  -861.678u +      +      +   a  +      +      +      +      +      + 
    1.3600  -859.344u +      +      +   a  +      +      +      +      +      + 
    1.3700  -856.774u +      +      +   a  +      +      +      +      +      + 
    1.3800  -853.925u +      +      +   a  +      +      +      +      +      + 
    1.3900  -850.751u +      +      +   a  +      +      +      +      +      + 
    1.4000  -847.198u-+------+------+---a--+------+------+------+------+------+-
    1.4100  -843.211u +      +      +   a  +      +      +      +      +      + 
    1.4200  -838.730u +      +      +    a +      +      +      +      +      + 
    1.4300  -833.695u +      +      +    a +      +      +      +      +      + 
    1.4400  -828.045u +      +      +    a +      +      +      +      +      + 
    1.4500  -821.723u +      +      +    a +      +      +      +      +      + 
    1.4600  -814.675u +      +      +    a +      +      +      +      +      + 
    1.4700  -806.853u +      +      +    a +      +      +      +      +      + 
    1.4800  -798.213u +      +      +     a+      +      +      +      +      + 
    1.4900  -788.718u +      +      +     a+      +      +      +      +      + 
    1.5000  -778.337u-+------+------+-----a+------+------+------+------+------+-
    1.5100  -767.041u +      +      +      a      +      +      +      +      + 
    1.5200  -754.809u +      +      +      a      +      +      +      +      + 
    1.5300  -741.622u +      +      +      a      +      +      +      +      + 
    1.5400  -727.464u +      +      +      +a     +      +      +      +      + 
    1.5500  -712.323u +      +      +      +a     +      +      +      +      + 
    1.5600  -696.188u +      +      +      + a    +      +      +      +      + 
    1.5700  -679.051u +      +      +      + a    +      +      +      +      + 
    1.5800  -660.904u +      +      +      + a    +      +      +      +      + 
    1.5900  -641.742u +      +      +      +  a   +      +      +      +      + 
    1.6000  -621.559u-+------+------+------+---a--+------+------+------+------+-
    1.6100  -600.352u +      +      +      +   a  +      +      +      +      + 
    1.6200  -578.117u +      +      +      +    a +      +      +      +      + 
    1.6300  -554.851u +      +      +      +    a +      +      +      +      + 
    1.6400  -530.551u +      +      +      +     a+      +      +      +      + 
    1.6500  -505.215u +      +      +      +      a      +      +      +      + 
    1.6600  -478.842u +      +      +      +      +a     +      +      +      + 
    1.6700  -451.429u +      +      +      +      +a     +      +      +      + 
    1.6800  -422.976u +      +      +      +      + a    +      +      +      + 
    1.6900  -393.481u +      +      +      +      +  a   +      +      +      + 
    1.7000  -362.942u-+------+------+------+------+---a--+------+------+------+-
    1.7100  -331.360u +      +      +      +      +    a +      +      +      + 
    1.7200  -298.732u +      +      +      +      +     a+      +      +      + 
    1.7300  -265.058u +      +      +      +      +      a      +      +      + 
    1.7400  -230.338u +      +      +      +      +      +a     +      +      + 
    1.7500  -194.571u +      +      +      +      +      + a    +      +      + 
    1.7600  -157.755u +      +      +      +      +      +  a   +      +      + 
    1.7700  -119.891u +      +      +      +      +      +   a  +      +      + 
    1.7800   -80.977u +      +      +      +      +      +    a +      +      + 
    1.7900   -41.014u +      +      +      +      +      +     a+      +      + 
    1.8000     0.    -+------+------+------+------+------+------a------+------+-
                      +             +             +             +             + 

b


          ***** job concluded
1****** HSPICE -- K-2015.06-SP1 linux64 (Aug 23 2015) ******                    
 ******  
 sim3

 ****** job statistics summary tnom=  25.000 temp=  25.000 ******
  
  
 ******  Machine Information  ******
 CPU:
 model name	: Intel(R) Xeon(R) CPU           X5650  @ 2.67GHz
 cpu MHz	: 2660.005
  
 OS:
 Linux version 3.10.0-862.14.4.el7.x86_64 (mockbuild@kbuilder.bsys.centos.org) (gcc version 4.8.5 20150623 (Red Hat 4.8.5-28) (GCC) ) #1 SMP Wed Sep 26 15:12:11 UTC 2018


  ******  HSPICE Threads Information  ******

  Command Line Threads Count :     1
  Available CPU Count        :    24
  Actual Threads Count       :     1


  ******  Circuit Statistics  ******
  # nodes       =       4 # elements   =       4
  # resistors   =       0 # capacitors =       0 # inductors   =       0
  # mutual_inds =       0 # vccs       =       0 # vcvs        =       0
  # cccs        =       0 # ccvs       =       0 # volt_srcs   =       3
  # curr_srcs   =       0 # diodes     =       0 # bjts        =       0
  # jfets       =       0 # mosfets    =       1 # U elements  =       0
  # T elements  =       0 # W elements =       0 # B elements  =       0
  # S elements  =       0 # P elements =       0 # va device   =       0
  # vector_srcs =       0 # N elements =       0


  ******  Runtime Statistics (seconds)  ******

  analysis           time    # points   tot. iter  conv.iter
  op point           0.00           1           0
  dc sweep           0.01         181         363
  readin             0.02
  errchk             0.01
  setup              0.00
  output             0.01


           peak memory used        237.00 megabytes
           total cpu time            0.05 seconds
           total elapsed time        0.17 seconds
           job started at     18:55:13 11/06/2019
           job ended   at     18:55:13 11/06/2019


 lic: Release hspice token(s) 
 lic: total license checkout elapse time:        0.13(s)
