Using: /usr/local/apps/synopsys/current_hspice/hspice/linux64/hspice sim1.sp
 ****** HSPICE -- K-2015.06-SP1 linux64 (Aug 23 2015) ******                    
  Copyright (c) 1986 - 2019 by Synopsys, Inc. All Rights Reserved.              
  This software and the associated documentation are proprietary
  to Synopsys, Inc. This software may only be used in accordance
  with the terms and conditions of a written license agreement with
  Synopsys, Inc. All other use, reproduction, or distribution of
  this software is strictly prohibited.
  Input File: sim1.sp                                                           
  Command line options: /usr/local/apps/synopsys/current_hspice/hspice/linux64/hspice sim1.sp
 lic:  
 lic: FLEXlm: v11.2.1 
 lic: USER:   lopezalj             HOSTNAME: flip3.engr.oregonstate.edu 
 lic: HOSTID: "14feb5d10927"       PID:      25370 
 lic: Using FLEXlm license file: 
 lic: 7188@linlic.engr.oregonstate.edu 
 lic: Checkout 1 hspice 
 lic: License/Maintenance for hspice will expire on 12-jul-2021/2019.06 
 lic: 1(in_use)/50(total) FLOATING license(s) on SERVER 7188@linlic.engr.oregonstate.edu 
 lic:   
 Init: read install configuration file: /usr/local/apps/synopsys/current_hspice/hspice/meta.cfg
1****** HSPICE -- K-2015.06-SP1 linux64 (Aug 23 2015) ******                    
 ******  
 sim1

 ****** mos   model parameters tnom=  25.000 temp=  25.000 ******
 ***************************************************************************
 ***        model parameters  model name:   0:n_18     model type:nmos   ***
 ***************************************************************************

   *** general parameters ***
    deriv=   0.           

   ***  level 49  model parameters  ***

      hspver=    2006.03               level=         49         
     version=        3.1            paramchk=          0         
      apwarn=          1                lite=          0         
      vgslim=          0             binUnit=          1         
      capMod=          2               xpart=        0.5         
      mobMod=          1              nqsMod=          0         
      stiMod=          0                 elm=          5         
    sfvtflag=          0                 tox=    4.1e-09 meter   
          xj=      1e-07 meter       binflag=          0         
        lmin=          0 meter          lmax=          0 meter   
        wmin=          0 meter          wmax=          0 meter   
        lref=          0 meter          wref=          0 meter   
        lint=7.65986e-09 meter          wint=          0 meter   
       lmult=          1               wmult=          1         
          ll=          0                 lln=          1         
          lw=          0                 lwn=          1         
         lwl=          0                  wl=          0         
         wln=          1                  ww=          0         
         wwn=          1                 wwl=          0         
         dwg=-1.17694e-08 m/V             dwb=1.96583e-08 m/V^1/2 
          xl=          0                  xw=     -1e-08         
          a0=          2                 ags=   0.428182 V^-1    
          b0=-4.43566e-09 meter            b1=     -1e-07 meter   
        keta=-0.00873409 V^-1           voff= -0.0909514 V       
       ngate=          0 cm^-3           vbx=          0 V       
         vbm=         -3 V                xt=   1.55e-07 meter   
        vth0=   0.376033 V               nch= 2.3549e+17 cm^-3   
        nsub=      6e+16 cm^-3           nlx=1.83658e-07 meter   
      gamma1=          0 V^-1/2       gamma2=          0 V^-1/2  
          k1=   0.598252 V^1/2            k2= 0.00204285         
          k3=      0.001                 k3b=    5.47338 V^-1    
          w0=      1e-07 meter          dvt0=    1.38283         
        dvt1=   0.374633                dvt2=  0.0524724 V^-1    
       dvt0w=          0 meter^-1      dvt1w=          0 meter^-1
       dvt2w=          0 V^-1           dsub= 0.00880778         
        eta0=  0.0029649                etab=9.02839e-05 V^-1    
          u0=    265.099 cm^2/V/sec         ua=-1.34288e-09 m/V     
          ub=2.21876e-18 (m/V)^2          uc=5.30227e-11 V^-1    
        vsat=      99674 m/sec            a1=0.000117788 v^-1    
          a2=          1               delta=       0.01 V       
        rdsw=        150 ohm-um         prwg=        0.5 V^-1    
        prwb=       -0.2 V^-1/2           wr=          1         
        pclm=   0.739383             pdiblc1=   0.240506         
     pdiblc2= 0.00238467             pdiblcb=       -0.1 V^-1    
      pscbe1=2.25061e+09 V/m          pscbe2=5.50405e-09 V/m     
       drout=   0.810147                pvag= 0.00820885         
     nfactor=    2.47421                cdsc=    0.00024 f/m^2   
       cdscb=          0 f/V/m^2       cdscd=          0 f/V/m^2 
         cit=          0 f/m^2        alpha0=          0 m/V     
       beta0=         30 V               dlc=7.65986e-09 meter   
         dwc=          0 meter           clc=      1e-07 meter   
         cle=        0.6                cgso=   7.68e-10 f/m     
        cgdo=   7.68e-10 f/m            cgbo=      1e-12 f/m     
        cgsl=          0 f/m            cgdl=          0 f/m     
      ckappa=        0.6                  cf=          0 f/m     
        tnom=     300.15 K               kt1=      -0.11 V       
        kt1l=          0                 kt2=      0.022         
         ute=       -1.5                 ua1=   4.31e-09 m/V     
         ub1=  -7.61e-18 (m/V)^2         uc1=   -5.6e-11 m/V^2   
          at=      33000 m/s             prt=          0         
         using Berkeley noise model       noiMod=          1         
        noia=      1e+20                noib=      50000         
        noic=   -1.4e-12                  em=    4.1e+07         
          ef=          1                  af=          1         
          kf=          0              gdsnoi=-1.23457e-29         
         using Hspice diodes            using ACM 
         acm=         0                 hdif=         0 meter    
        ldif=         0 meter             js=         0 amp/m^2  
         jsw=         0 amp/m            xti=         0          
           n=         1                   cj=0.00096236 f/m^2    
          mj=  0.380501                   pb=       0.8 V        
        cjsw=2.37186e-10 f/m             mjsw=  0.107791          
         php=       0.8 V               pbsw (not used)           
      cjgate=2.37186e-10 f/m            cjswg (not used)           
       mjswg (not used)                 pbswg (not used)           
       lketa=-0.00944713               wketa= 0.00500085         
       pketa=-0.00308008               pvth0=-0.000919017         
         pk2=0.000320258               peta0=9.33065e-05         
         pu0=    32.7094                 pua=1.35883e-10         
       pvsat=    2004.06               prdsw=         -5         
 

 Warning: Pd = 0 is less than Weff = 2.499e-05 in BSIM3 model    0:n_18 element m1 with W = 2.499e-05, L = 5e-07

  
      
 *****************************************************************
 ******  option summary
 ******
 runlvl  = 3         bypass  = 2         




 ****     small-signal transfer characteristics

        vin        input resistance at vin       output resistance at v(vd)       v(vd)/vin      

       0.                1.000e+20                       1.0000k                   -2.3458u
      10.0000m           1.000e+20                       1.0000k                   -3.0694u
      20.0000m           1.000e+20                       1.0000k                   -4.0157u
      30.0000m           1.000e+20                     999.9999                    -5.2533u
      40.0000m           1.000e+20                     999.9999                    -6.8716u
      50.0000m           1.000e+20                     999.9999                    -8.9871u
      60.0000m           1.000e+20                     999.9999                   -11.7521u
      70.0000m           1.000e+20                     999.9998                   -15.3653u
      80.0000m           1.000e+20                     999.9998                   -20.0854u
      90.0000m           1.000e+20                     999.9997                   -26.2496u
     100.0000m           1.000e+20                     999.9996                   -34.2969u
     110.0000m           1.000e+20                     999.9995                   -44.7984u
     120.0000m           1.000e+20                     999.9994                   -58.4964u
     130.0000m           1.000e+20                     999.9992                   -76.3545u
     140.0000m           1.000e+20                     999.9990                   -99.6227u
     150.0000m           1.000e+20                     999.9986                  -129.9200u
     160.0000m           1.000e+20                     999.9982                  -169.3407u
     170.0000m           1.000e+20                     999.9977                  -220.5894u
     180.0000m           1.000e+20                     999.9970                  -287.1529u
     190.0000m           1.000e+20                     999.9961                  -373.5178u
     200.0000m           1.000e+20                     999.9949                  -485.4448u
     210.0000m           1.000e+20                     999.9934                  -630.3131u
     220.0000m           1.000e+20                     999.9914                  -817.5520u
     230.0000m           1.000e+20                     999.9889                    -1.0592m
     240.0000m           1.000e+20                     999.9856                    -1.3705m
     250.0000m           1.000e+20                     999.9813                    -1.7707m
     260.0000m           1.000e+20                     999.9759                    -2.2845m
     270.0000m           1.000e+20                     999.9689                    -2.9424m
     280.0000m           1.000e+20                     999.9600                    -3.7832m
     290.0000m           1.000e+20                     999.9486                    -4.8553m
     300.0000m           1.000e+20                     999.9341                    -6.2192m
     310.0000m           1.000e+20                     999.9157                    -7.9504m
     320.0000m           1.000e+20                     999.8924                   -10.1427m
     330.0000m           1.000e+20                     999.8630                   -12.9133m
     340.0000m           1.000e+20                     999.8258                   -16.4074m
     350.0000m           1.000e+20                     999.7792                   -20.8058m
     360.0000m           1.000e+20                     999.7206                   -26.3322m
     370.0000m           1.000e+20                     999.6474                   -33.2638m
     380.0000m           1.000e+20                     999.5562                   -41.9410m
     390.0000m           1.000e+20                     999.4428                   -52.7791m
     400.0000m           1.000e+20                     999.3024                   -66.2782m
     410.0000m           1.000e+20                     999.1293                   -83.0304m
     420.0000m           1.000e+20                     998.9170                  -103.7207m
     430.0000m           1.000e+20                     998.6585                  -129.1191m
     440.0000m           1.000e+20                     998.3459                  -160.0595m
     450.0000m           1.000e+20                     997.9715                  -197.4054m
     460.0000m           1.000e+20                     997.5277                  -241.9984m
     470.0000m           1.000e+20                     997.0077                  -294.5965m
     480.0000m           1.000e+20                     996.4062                  -355.8041m
     490.0000m           1.000e+20                     995.7197                  -426.0040m
     500.0000m           1.000e+20                     994.9473                  -505.3008m
     510.0000m           1.000e+20                     994.0908                  -593.4847m
     520.0000m           1.000e+20                     993.1547                  -690.0226m
     530.0000m           1.000e+20                     992.1460                  -794.0785m
     540.0000m           1.000e+20                     991.0741                  -904.5616m
     550.0000m           1.000e+20                     989.9497                    -1.0202 
     560.0000m           1.000e+20                     988.7843                    -1.1396 
     570.0000m           1.000e+20                     987.5899                    -1.2614 
     580.0000m           1.000e+20                     986.3777                    -1.3841 
     590.0000m           1.000e+20                     985.1581                    -1.5067 
     600.0000m           1.000e+20                     983.9399                    -1.6280 
     610.0000m           1.000e+20                     982.7305                    -1.7470 
     620.0000m           1.000e+20                     981.5355                    -1.8632 
     630.0000m           1.000e+20                     980.3589                    -1.9759 
     640.0000m           1.000e+20                     979.2030                    -2.0849 
     650.0000m           1.000e+20                     978.0690                    -2.1900 
     660.0000m           1.000e+20                     976.9565                    -2.2911 
     670.0000m           1.000e+20                     975.8644                    -2.3882 
     680.0000m           1.000e+20                     974.7905                    -2.4815 
     690.0000m           1.000e+20                     973.7321                    -2.5712 
     700.0000m           1.000e+20                     972.6859                    -2.6574 
     710.0000m           1.000e+20                     971.6480                    -2.7404 
     720.0000m           1.000e+20                     970.6141                    -2.8205 
     730.0000m           1.000e+20                     969.5795                    -2.8978 
     740.0000m           1.000e+20                     968.5390                    -2.9725 
     750.0000m           1.000e+20                     967.4868                    -3.0449 
     760.0000m           1.000e+20                     966.4165                    -3.1152 
     770.0000m           1.000e+20                     965.3209                    -3.1834 
     780.0000m           1.000e+20                     964.1913                    -3.2497 
     790.0000m           1.000e+20                     963.0179                    -3.3143 
     800.0000m           1.000e+20                     961.7889                    -3.3770 
     810.0000m           1.000e+20                     960.4897                    -3.4381 
     820.0000m           1.000e+20                     959.1024                    -3.4974 
     830.0000m           1.000e+20                     957.6047                    -3.5549 
     840.0000m           1.000e+20                     955.9678                    -3.6105 
     850.0000m           1.000e+20                     954.1545                    -3.6641 
     860.0000m           1.000e+20                     952.1161                    -3.7153 
     870.0000m           1.000e+20                     949.7870                    -3.7638 
     880.0000m           1.000e+20                     947.0785                    -3.8092 
     890.0000m           1.000e+20                     943.8673                    -3.8506 
     900.0000m           1.000e+20                     939.9798                    -3.8872 
     910.0000m           1.000e+20                     935.1657                    -3.9174 
     920.0000m           1.000e+20                     929.0565                    -3.9391 
     930.0000m           1.000e+20                     921.0973                    -3.9492 
     940.0000m           1.000e+20                     910.4346                    -3.9428 
     950.0000m           1.000e+20                     895.7336                    -3.9123 
     960.0000m           1.000e+20                     874.8996                    -3.8460 
     970.0000m           1.000e+20                     844.7405                    -3.7261 
     980.0000m           1.000e+20                     800.9211                    -3.5287 
     990.0000m           1.000e+20                     739.4100                    -3.2318 
       1.0000            1.000e+20                     661.0368                    -2.8402 
       1.0100            1.000e+20                     575.7890                    -2.4080 
       1.0200            1.000e+20                     497.3914                    -2.0094 
       1.0300            1.000e+20                     433.1749                    -1.6839 
       1.0400            1.000e+20                     383.1017                    -1.4317 
       1.0500            1.000e+20                     344.2655                    -1.2377 
       1.0600            1.000e+20                     313.7090                    -1.0865 
       1.0700            1.000e+20                     289.1717                  -966.2855m
       1.0800            1.000e+20                     269.0582                  -868.7365m
       1.0900            1.000e+20                     252.2596                  -788.1005m
       1.1000            1.000e+20                     237.9983                  -720.3485m
       1.1100            1.000e+20                     225.7189                  -662.6107m
       1.1200            1.000e+20                     215.0174                  -612.8049m
       1.1300            1.000e+20                     205.5928                  -569.3840m
       1.1400            1.000e+20                     197.2172                  -531.1804m
       1.1500            1.000e+20                     189.7148                  -497.2960m
       1.1600            1.000e+20                     182.9479                  -467.0293m
       1.1700            1.000e+20                     176.8070                  -439.8241m
       1.1800            1.000e+20                     171.2041                  -415.2341m
       1.1900            1.000e+20                     166.0671                  -392.8965m
       1.2000            1.000e+20                     161.3368                  -372.5136m
       1.2100            1.000e+20                     156.9641                  -353.8383m
       1.2200            1.000e+20                     152.9076                  -336.6644m
       1.2300            1.000e+20                     149.1324                  -320.8175m
       1.2400            1.000e+20                     145.6086                  -306.1500m
       1.2500            1.000e+20                     142.3106                  -292.5354m
       1.2600            1.000e+20                     139.2165                  -279.8649m
       1.2700            1.000e+20                     136.3069                  -268.0443m
       1.2800            1.000e+20                     133.5652                  -256.9918m
       1.2900            1.000e+20                     130.9767                  -246.6357m
       1.3000            1.000e+20                     128.5284                  -236.9132m
       1.3100            1.000e+20                     126.2089                  -227.7688m
       1.3200            1.000e+20                     124.0078                  -219.1532m
       1.3300            1.000e+20                     121.9162                  -211.0229m
       1.3400            1.000e+20                     119.9259                  -203.3388m
       1.3500            1.000e+20                     118.0295                  -196.0660m
       1.3600            1.000e+20                     116.2204                  -189.1733m
       1.3700            1.000e+20                     114.4927                  -182.6323m
       1.3800            1.000e+20                     112.8410                  -176.4176m
       1.3900            1.000e+20                     111.2602                  -170.5062m
       1.4000            1.000e+20                     109.7460                  -164.8769m
       1.4100            1.000e+20                     108.2941                  -159.5109m
       1.4200            1.000e+20                     106.9010                  -154.3907m
       1.4300            1.000e+20                     105.5630                  -149.5003m
       1.4400            1.000e+20                     104.2771                  -144.8254m
       1.4500            1.000e+20                     103.0403                  -140.3524m
       1.4600            1.000e+20                     101.8500                  -136.0691m
       1.4700            1.000e+20                     100.7035                  -131.9643m
       1.4800            1.000e+20                      99.5987                  -128.0274m
       1.4900            1.000e+20                      98.5334                  -124.2488m
       1.5000            1.000e+20                      97.5055                  -120.6197m
       1.5100            1.000e+20                      96.5132                  -117.1317m
       1.5200            1.000e+20                      95.5549                  -113.7771m
       1.5300            1.000e+20                      94.6288                  -110.5489m
       1.5400            1.000e+20                      93.7334                  -107.4404m
       1.5500            1.000e+20                      92.8675                  -104.4454m
       1.5600            1.000e+20                      92.0295                  -101.5581m
       1.5700            1.000e+20                      91.2184                   -98.7731m
       1.5800            1.000e+20                      90.4329                   -96.0854m
       1.5900            1.000e+20                      89.6719                   -93.4903m
       1.6000            1.000e+20                      88.9344                   -90.9833m
       1.6100            1.000e+20                      88.2194                   -88.5603m
       1.6200            1.000e+20                      87.5260                   -86.2174m
       1.6300            1.000e+20                      86.8534                   -83.9509m
       1.6400            1.000e+20                      86.2006                   -81.7573m
       1.6500            1.000e+20                      85.5671                   -79.6335m
       1.6600            1.000e+20                      84.9519                   -77.5764m
       1.6700            1.000e+20                      84.3544                   -75.5830m
       1.6800            1.000e+20                      83.7740                   -73.6506m
       1.6900            1.000e+20                      83.2101                   -71.7767m
       1.7000            1.000e+20                      82.6619                   -69.9589m
       1.7100            1.000e+20                      82.1291                   -68.1947m
       1.7200            1.000e+20                      81.6109                   -66.4821m
       1.7300            1.000e+20                      81.1070                   -64.8190m
       1.7400            1.000e+20                      80.6169                   -63.2033m
       1.7500            1.000e+20                      80.1400                   -61.6333m
       1.7600            1.000e+20                      79.6759                   -60.1072m
       1.7700            1.000e+20                      79.2243                   -58.6232m
       1.7800            1.000e+20                      78.7847                   -57.1798m
       1.7900            1.000e+20                      78.3566                   -55.7755m
       1.8000            1.000e+20                      77.9399                   -54.4088m
  
 ******  
 sim1

 ****** dc transfer curves tnom=  25.000 temp=  25.000 ******

a


 legend:

  a: v(vg)
  b: i(m1)

      volt       v(vg)
 (a       )       0.          500.0000m       1.0000        1.5000       2.0000 
 (b       )       0.          500.0000u       1.0000m       1.5000m      2.0000m
                      +             +             +             +             + 
    0.         0.    -2------+------+------+------+------+------+------+------+-
   10.0000m   10.000m 2      +      +      +      +      +      +      +      + 
   20.0000m   20.000m ba     +      +      +      +      +      +      +      + 
   30.0000m   30.000m ba     +      +      +      +      +      +      +      + 
   40.0000m   40.000m ba     +      +      +      +      +      +      +      + 
   50.0000m   50.000m ba     +      +      +      +      +      +      +      + 
   60.0000m   60.000m b a    +      +      +      +      +      +      +      + 
   70.0000m   70.000m b a    +      +      +      +      +      +      +      + 
   80.0000m   80.000m b a    +      +      +      +      +      +      +      + 
   90.0000m   90.000m b  a   +      +      +      +      +      +      +      + 
  100.0000m  100.000m-b--a---+------+------+------+------+------+------+------+-
  110.0000m  110.000m b  a   +      +      +      +      +      +      +      + 
  120.0000m  120.000m b  a   +      +      +      +      +      +      +      + 
  130.0000m  130.000m b   a  +      +      +      +      +      +      +      + 
  140.0000m  140.000m b   a  +      +      +      +      +      +      +      + 
  150.0000m  150.000m b   a  +      +      +      +      +      +      +      + 
  160.0000m  160.000m b   a  +      +      +      +      +      +      +      + 
  170.0000m  170.000m b    a +      +      +      +      +      +      +      + 
  180.0000m  180.000m b    a +      +      +      +      +      +      +      + 
  190.0000m  190.000m b    a +      +      +      +      +      +      +      + 
  200.0000m  200.000m-b-----a+------+------+------+------+------+------+------+-
  210.0000m  210.000m b     a+      +      +      +      +      +      +      + 
  220.0000m  220.000m b     a+      +      +      +      +      +      +      + 
  230.0000m  230.000m b     a+      +      +      +      +      +      +      + 
  240.0000m  240.000m b      a      +      +      +      +      +      +      + 
  250.0000m  250.000m b      a      +      +      +      +      +      +      + 
  260.0000m  260.000m b      a      +      +      +      +      +      +      + 
  270.0000m  270.000m b      +a     +      +      +      +      +      +      + 
  280.0000m  280.000m b      +a     +      +      +      +      +      +      + 
  290.0000m  290.000m b      +a     +      +      +      +      +      +      + 
  300.0000m  300.000m-b------+a-----+------+------+------+------+------+------+-
  310.0000m  310.000m b      + a    +      +      +      +      +      +      + 
  320.0000m  320.000m b      + a    +      +      +      +      +      +      + 
  330.0000m  330.000m b      + a    +      +      +      +      +      +      + 
  340.0000m  340.000m b      +  a   +      +      +      +      +      +      + 
  350.0000m  350.000m b      +  a   +      +      +      +      +      +      + 
  360.0000m  360.000m b      +  a   +      +      +      +      +      +      + 
  370.0000m  370.000m b      +  a   +      +      +      +      +      +      + 
  380.0000m  380.000m b      +   a  +      +      +      +      +      +      + 
  390.0000m  390.000m b      +   a  +      +      +      +      +      +      + 
  400.0000m  400.000m-b------+---a--+------+------+------+------+------+------+-
  410.0000m  410.000m b      +   a  +      +      +      +      +      +      + 
  420.0000m  420.000m b      +    a +      +      +      +      +      +      + 
  430.0000m  430.000m b      +    a +      +      +      +      +      +      + 
  440.0000m  440.000m b      +    a +      +      +      +      +      +      + 
  450.0000m  450.000m b      +     a+      +      +      +      +      +      + 
  460.0000m  460.000m b      +     a+      +      +      +      +      +      + 
  470.0000m  470.000m b      +     a+      +      +      +      +      +      + 
  480.0000m  480.000m b      +     a+      +      +      +      +      +      + 
  490.0000m  490.000m +b     +      a      +      +      +      +      +      + 
  500.0000m  500.000m-+b-----+------a------+------+------+------+------+------+-
  510.0000m  510.000m +b     +      a      +      +      +      +      +      + 
  520.0000m  520.000m +b     +      +a     +      +      +      +      +      + 
  530.0000m  530.000m +b     +      +a     +      +      +      +      +      + 
  540.0000m  540.000m +b     +      +a     +      +      +      +      +      + 
  550.0000m  550.000m + b    +      +a     +      +      +      +      +      + 
  560.0000m  560.000m + b    +      + a    +      +      +      +      +      + 
  570.0000m  570.000m + b    +      + a    +      +      +      +      +      + 
  580.0000m  580.000m +  b   +      + a    +      +      +      +      +      + 
  590.0000m  590.000m +  b   +      +  a   +      +      +      +      +      + 
  600.0000m  600.000m-+---b--+------+--a---+------+------+------+------+------+-
  610.0000m  610.000m +   b  +      +  a   +      +      +      +      +      + 
  620.0000m  620.000m +    b +      +  a   +      +      +      +      +      + 
  630.0000m  630.000m +    b +      +   a  +      +      +      +      +      + 
  640.0000m  640.000m +     b+      +   a  +      +      +      +      +      + 
  650.0000m  650.000m +     b+      +   a  +      +      +      +      +      + 
  660.0000m  660.000m +      b      +   a  +      +      +      +      +      + 
  670.0000m  670.000m +      +b     +    a +      +      +      +      +      + 
  680.0000m  680.000m +      +b     +    a +      +      +      +      +      + 
  690.0000m  690.000m +      + b    +    a +      +      +      +      +      + 
  700.0000m  700.000m-+------+--b---+-----a+------+------+------+------+------+-
  710.0000m  710.000m +      +  b   +     a+      +      +      +      +      + 
  720.0000m  720.000m +      +   b  +     a+      +      +      +      +      + 
  730.0000m  730.000m +      +    b +     a+      +      +      +      +      + 
  740.0000m  740.000m +      +     b+      a      +      +      +      +      + 
  750.0000m  750.000m +      +      b      a      +      +      +      +      + 
  760.0000m  760.000m +      +      +b     a      +      +      +      +      + 
  770.0000m  770.000m +      +      +b     +a     +      +      +      +      + 
  780.0000m  780.000m +      +      + b    +a     +      +      +      +      + 
  790.0000m  790.000m +      +      +  b   +a     +      +      +      +      + 
  800.0000m  800.000m-+------+------+---b--+a-----+------+------+------+------+-
  810.0000m  810.000m +      +      +    b + a    +      +      +      +      + 
  820.0000m  820.000m +      +      +     b+ a    +      +      +      +      + 
  830.0000m  830.000m +      +      +      b a    +      +      +      +      + 
  840.0000m  840.000m +      +      +      +b a   +      +      +      +      + 
  850.0000m  850.000m +      +      +      + ba   +      +      +      +      + 
  860.0000m  860.000m +      +      +      +  2   +      +      +      +      + 
  870.0000m  870.000m +      +      +      +  ab  +      +      +      +      + 
  880.0000m  880.000m +      +      +      +   ab +      +      +      +      + 
  890.0000m  890.000m +      +      +      +   a b+      +      +      +      + 
  900.0000m  900.000m-+------+------+------+---a--b------+------+------+------+-
  910.0000m  910.000m +      +      +      +   a  + b    +      +      +      + 
  920.0000m  920.000m +      +      +      +    a +  b   +      +      +      + 
  930.0000m  930.000m +      +      +      +    a +   b  +      +      +      + 
  940.0000m  940.000m +      +      +      +    a +    b +      +      +      + 
  950.0000m  950.000m +      +      +      +     a+     b+      +      +      + 
  960.0000m  960.000m +      +      +      +     a+      b      +      +      + 
  970.0000m  970.000m +      +      +      +     a+      +b     +      +      + 
  980.0000m  980.000m +      +      +      +     a+      + b    +      +      + 
  990.0000m  990.000m +      +      +      +      a      +  b   +      +      + 
    1.0000     1.000 -+------+------+------+------a------+---b--+------+------+-
    1.0100     1.010  +      +      +      +      a      +    b +      +      + 
    1.0200     1.020  +      +      +      +      +a     +    b +      +      + 
    1.0300     1.030  +      +      +      +      +a     +     b+      +      + 
    1.0400     1.040  +      +      +      +      +a     +     b+      +      + 
    1.0500     1.050  +      +      +      +      +a     +      b      +      + 
    1.0600     1.060  +      +      +      +      + a    +      b      +      + 
    1.0700     1.070  +      +      +      +      + a    +      b      +      + 
    1.0800     1.080  +      +      +      +      + a    +      b      +      + 
    1.0900     1.090  +      +      +      +      +  a   +      +b     +      + 
    1.1000     1.100 -+------+------+------+------+--a---+------+b-----+------+-
    1.1100     1.110  +      +      +      +      +  a   +      +b     +      + 
    1.1200     1.120  +      +      +      +      +  a   +      +b     +      + 
    1.1300     1.130  +      +      +      +      +   a  +      +b     +      + 
    1.1400     1.140  +      +      +      +      +   a  +      + b    +      + 
    1.1500     1.150  +      +      +      +      +   a  +      + b    +      + 
    1.1600     1.160  +      +      +      +      +   a  +      + b    +      + 
    1.1700     1.170  +      +      +      +      +    a +      + b    +      + 
    1.1800     1.180  +      +      +      +      +    a +      + b    +      + 
    1.1900     1.190  +      +      +      +      +    a +      + b    +      + 
    1.2000     1.200 -+------+------+------+------+-----a+------+-b----+------+-
    1.2100     1.210  +      +      +      +      +     a+      + b    +      + 
    1.2200     1.220  +      +      +      +      +     a+      +  b   +      + 
    1.2300     1.230  +      +      +      +      +     a+      +  b   +      + 
    1.2400     1.240  +      +      +      +      +      a      +  b   +      + 
    1.2500     1.250  +      +      +      +      +      a      +  b   +      + 
    1.2600     1.260  +      +      +      +      +      a      +  b   +      + 
    1.2700     1.270  +      +      +      +      +      +a     +  b   +      + 
    1.2800     1.280  +      +      +      +      +      +a     +  b   +      + 
    1.2900     1.290  +      +      +      +      +      +a     +  b   +      + 
    1.3000     1.300 -+------+------+------+------+------+a-----+--b---+------+-
    1.3100     1.310  +      +      +      +      +      + a    +  b   +      + 
    1.3200     1.320  +      +      +      +      +      + a    +  b   +      + 
    1.3300     1.330  +      +      +      +      +      + a    +  b   +      + 
    1.3400     1.340  +      +      +      +      +      +  a   +  b   +      + 
    1.3500     1.350  +      +      +      +      +      +  a   +  b   +      + 
    1.3600     1.360  +      +      +      +      +      +  a   +   b  +      + 
    1.3700     1.370  +      +      +      +      +      +  a   +   b  +      + 
    1.3800     1.380  +      +      +      +      +      +   a  +   b  +      + 
    1.3900     1.390  +      +      +      +      +      +   a  +   b  +      + 
    1.4000     1.400 -+------+------+------+------+------+---a--+---b--+------+-
    1.4100     1.410  +      +      +      +      +      +   a  +   b  +      + 
    1.4200     1.420  +      +      +      +      +      +    a +   b  +      + 
    1.4300     1.430  +      +      +      +      +      +    a +   b  +      + 
    1.4400     1.440  +      +      +      +      +      +    a +   b  +      + 
    1.4500     1.450  +      +      +      +      +      +     a+   b  +      + 
    1.4600     1.460  +      +      +      +      +      +     a+   b  +      + 
    1.4700     1.470  +      +      +      +      +      +     a+   b  +      + 
    1.4800     1.480  +      +      +      +      +      +     a+   b  +      + 
    1.4900     1.490  +      +      +      +      +      +      a   b  +      + 
    1.5000     1.500 -+------+------+------+------+------+------a---b--+------+-
    1.5100     1.510  +      +      +      +      +      +      a   b  +      + 
    1.5200     1.520  +      +      +      +      +      +      +a  b  +      + 
    1.5300     1.530  +      +      +      +      +      +      +a  b  +      + 
    1.5400     1.540  +      +      +      +      +      +      +a  b  +      + 
    1.5500     1.550  +      +      +      +      +      +      +a  b  +      + 
    1.5600     1.560  +      +      +      +      +      +      + a b  +      + 
    1.5700     1.570  +      +      +      +      +      +      + a b  +      + 
    1.5800     1.580  +      +      +      +      +      +      + a b  +      + 
    1.5900     1.590  +      +      +      +      +      +      +  ab  +      + 
    1.6000     1.600 -+------+------+------+------+------+------+--ab--+------+-
    1.6100     1.610  +      +      +      +      +      +      +  ab  +      + 
    1.6200     1.620  +      +      +      +      +      +      +  ab  +      + 
    1.6300     1.630  +      +      +      +      +      +      +   2  +      + 
    1.6400     1.640  +      +      +      +      +      +      +   2  +      + 
    1.6500     1.650  +      +      +      +      +      +      +   ab +      + 
    1.6600     1.660  +      +      +      +      +      +      +   ab +      + 
    1.6700     1.670  +      +      +      +      +      +      +    2 +      + 
    1.6800     1.680  +      +      +      +      +      +      +    2 +      + 
    1.6900     1.690  +      +      +      +      +      +      +    2 +      + 
    1.7000     1.700 -+------+------+------+------+------+------+----ba+------+-
    1.7100     1.710  +      +      +      +      +      +      +    ba+      + 
    1.7200     1.720  +      +      +      +      +      +      +    ba+      + 
    1.7300     1.730  +      +      +      +      +      +      +    ba+      + 
    1.7400     1.740  +      +      +      +      +      +      +    b a      + 
    1.7500     1.750  +      +      +      +      +      +      +    b a      + 
    1.7600     1.760  +      +      +      +      +      +      +    b a      + 
    1.7700     1.770  +      +      +      +      +      +      +    b +a     + 
    1.7800     1.780  +      +      +      +      +      +      +    b +a     + 
    1.7900     1.790  +      +      +      +      +      +      +    b +a     + 
    1.8000     1.800 -+------+------+------+------+------+------+----b-+a-----+-
                      +             +             +             +             + 

b

 **info** dc convergence successful at Newton-Raphson method 
1****** HSPICE -- K-2015.06-SP1 linux64 (Aug 23 2015) ******                    
 ******  
 sim1

 ****** operating point information tnom=  25.000 temp=  25.000 ******
 ****** operating point status is all       simulation time is     0.     
    node    =voltage      node    =voltage      node    =voltage

 +0:vd      = 891.8604m 0:vdd     =   1.8000  0:vg      = 872.0000m


 **** voltage sources

 subckt                        
 element  0:vin      0:vsource 
  volts    872.0000m    1.8000 
  current    0.      -908.1396u
  power      0.         1.6347m

     total voltage source power dissipation=    1.6347m       watts



 **** resistors

 subckt             
 element  0:r_load  
  r value    1.0000k
  v drop   908.1396m
  current  908.1396u
  power    824.7175u



 **** mosfets


 subckt             
 element  0:m1      
 model    0:n_18    
 region     Saturati
  id       908.1396u
  ibs        0.     
  ibd        0.     
  vgs      872.0000m
  vds      891.8604m
  vbs        0.     
  vth      455.9137m
  vdsat    292.4530m
  vod      416.0863m
  beta      14.7364m
  gam eff  594.4165m
  gm         3.9748m
  gds       53.4311u
  gmb        1.0639m
  cdtot     18.9530f
  cgtot    124.3169f
  cstot     64.2339f
  cbtot     26.0693f
  cgs      101.2166f
  cgd       18.5491f







 ****     small-signal transfer characteristics

      v(vd)/vin                                =   -3.7731 
      input resistance at             vin      =  1.000e+20
      output resistance at v(vd)               =  949.2790 




          ***** job concluded
1****** HSPICE -- K-2015.06-SP1 linux64 (Aug 23 2015) ******                    
 ******  
 sim1

 ****** job statistics summary tnom=  25.000 temp=  25.000 ******
  
  
 ******  Machine Information  ******
 CPU:
 model name	: Intel(R) Xeon(R) CPU           X5650  @ 2.67GHz
 cpu MHz	: 2659.871
  
 OS:
 Linux version 3.10.0-862.14.4.el7.x86_64 (mockbuild@kbuilder.bsys.centos.org) (gcc version 4.8.5 20150623 (Red Hat 4.8.5-28) (GCC) ) #1 SMP Wed Sep 26 15:12:11 UTC 2018


  ******  HSPICE Threads Information  ******

  Command Line Threads Count :     1
  Available CPU Count        :    24
  Actual Threads Count       :     1


  ******  Circuit Statistics  ******
  # nodes       =       4 # elements   =       4
  # resistors   =       1 # capacitors =       0 # inductors   =       0
  # mutual_inds =       0 # vccs       =       0 # vcvs        =       0
  # cccs        =       0 # ccvs       =       0 # volt_srcs   =       2
  # curr_srcs   =       0 # diodes     =       0 # bjts        =       0
  # jfets       =       0 # mosfets    =       1 # U elements  =       0
  # T elements  =       0 # W elements =       0 # B elements  =       0
  # S elements  =       0 # P elements =       0 # va device   =       0
  # vector_srcs =       0 # N elements =       0


  ******  Runtime Statistics (seconds)  ******

  analysis           time    # points   tot. iter  conv.iter
  op point           0.00           1           6
  dc sweep           0.02         181         378
  ac analysis        0.00          91          91
  readin             0.01
  errchk             0.01
  setup              0.00
  output             0.00


           peak memory used        237.00 megabytes
           total cpu time            0.05 seconds
           total elapsed time        0.16 seconds
           job started at     12:56:55 11/07/2019
           job ended   at     12:56:55 11/07/2019


 lic: Release hspice token(s) 
 lic: total license checkout elapse time:        0.12(s)
